/PSS(R)E 34
COM
COM SUBSYSTEM description file entry created by PSS(R)E Config File Builder
COM
SUBSYSTEM 'ILLINOIS200'
   AREA 1
END
END
