/PSS(R)E 35
COM
COM SUBSYSTEM description file entry created by PSS(R)E Config File Builder
COM
SUBSYSTEM 'NEW_ENGLAND'
   AREA 1
END
END
