/PSS(R)E 34
COM
COM CONTINGENCY description file entry created by PSS(R)E Config File Builder
COM
SINGLE BRANCH IN SUBSYSTEM 'TUTORES'
DOUBLE BRANCH IN SUBSYSTEM 'TUTORES'
BUSDOUBLE BRANCH IN SUBSYSTEM 'TUTORES'
PARALLEL BRANCH IN SUBSYSTEM 'TUTORES'
SINGLE TIE FROM SUBSYSTEM 'TUTORES'
DOUBLE TIE FROM SUBSYSTEM 'TUTORES'
PARALLEL TIE FROM SUBSYSTEM 'TUTORES'
END
